<?xml version="1.0" encoding="UTF-8"?>

<!-- generated on 2023-01-25 17:12:26 by Eclipse SUMO polyconvert Version 1.12.0
<configuration xmlns:xsi="http://www.w3.org/2001/XMLSchema-instance" xsi:noNamespaceSchemaLocation="http://sumo.dlr.de/xsd/polyconvertConfiguration.xsd">

    <input>
        <net-file value="london.net.xml"/>
        <osm-files value="map.osm"/>
    </input>

    <output>
        <output-file value="london.poly.xml"/>
    </output>

    <processing>
        <poi-layer-offset value="5"/>
    </processing>

</configuration>
-->

<additional xmlns:xsi="http://www.w3.org/2001/XMLSchema-instance" xsi:noNamespaceSchemaLocation="http://sumo.dlr.de/xsd/additional_file.xsd">
    <location netOffset="-694330.79,-5718919.48" convBoundary="-158.64,-1644.55,9736.99,3450.36" origBoundary="-0.196897,51.572416,-0.052491,51.616207" projParameter="+proj=utm +zone=30 +ellps=WGS84 +datum=WGS84 +units=m +no_defs"/>

    <poly id="1023411368" type="landuse" color="194,194,130" fill="1" layer="-3.00" shape="2854.604133,2332.573585 2849.949006,2330.688392 2841.246219,2352.062942 2845.901328,2353.948127 2849.965016,2361.043852 2843.651477,2358.659729 2838.286791,2356.479635 2839.021189,2354.537317 2829.318513,2350.874152 2825.608464,2360.673347 2821.720564,2370.944428 2815.263379,2368.510200 2815.147221,2364.908970 2811.724651,2358.974067 2810.126463,2356.751522 2831.304134,2324.661115 2857.060455,2290.911966 2878.229395,2267.061507 2916.623190,2290.105525 2915.580600,2293.015722 2912.273662,2302.251550 2911.419562,2301.928723 2908.679432,2300.897631 2910.472015,2296.179355 2900.653309,2292.466992 2895.987518,2304.723183 2894.373256,2308.958463 2891.579045,2307.891866 2893.039235,2304.051448 2876.675016,2297.856830 2873.005530,2307.501685 2878.054414,2309.424522 2876.872943,2312.518610 2874.009934,2311.438205 2869.420820,2323.508106 2864.755560,2335.753206 2864.446996,2336.554052 2861.381946,2335.321016 2854.604133,2332.573585"/>
    <poly id="1029440055" type="building" color="255,230,230" fill="1" layer="-1.00" shape="3026.314957,1621.633245 3018.592097,1617.490277 3015.744150,1622.768665 3023.467004,1626.911629 3026.314957,1621.633245"/>
    <poly id="1029440056" type="building" color="255,230,230" fill="1" layer="-1.00" shape="3009.662800,1651.739346 3015.516244,1654.918550 3019.489927,1647.624047 3013.643399,1644.445108 3009.662800,1651.739346"/>
    <poly id="1029440057" type="building" color="255,230,230" fill="1" layer="-1.00" shape="2996.190700,1645.657297 3000.164778,1638.529826 2994.551473,1635.415685 2990.577402,1642.543161 2996.190700,1645.657297"/>
    <poly id="1029440058" type="building" color="255,230,230" fill="1" layer="-1.00" shape="3009.022707,1608.242129 3005.034300,1615.558337 3010.718162,1618.641835 3014.706576,1611.325631 3009.022707,1608.242129"/>
    <poly id="1029441647" type="building" color="255,230,230" fill="1" layer="-1.00" shape="3137.834749,1857.366209 3127.795625,1852.353150 3130.675230,1846.619510 3140.713929,1851.643694 3137.834749,1857.366209"/>
    <poly id="1029441648" type="building" color="255,230,230" fill="1" layer="-1.00" shape="3133.695299,1838.708830 3141.468378,1842.620121 3144.203433,1837.214905 3136.430347,1833.303610 3133.695299,1838.708830"/>
    <poly id="1029441649" type="building" color="255,230,230" fill="1" layer="-1.00" shape="3144.103696,1828.046632 3147.077658,1822.383496 3136.728248,1816.968573 3133.754296,1822.631715 3144.103696,1828.046632"/>
    <poly id="1029612247" type="landuse" color="194,194,130" fill="1" layer="-3.00" shape="3046.295070,2054.129082 3060.293591,2058.951322 3063.777626,2060.289904 3065.353725,2062.723237 3065.114273,2064.239432 3053.166796,2084.150826 3046.455313,2081.828886 3053.055680,2062.833478 3044.319160,2059.808940 3046.295070,2054.129082"/>
    <poly id="1029612249" type="building" color="255,230,230" fill="1" layer="-1.00" shape="3046.455313,2081.828886 3044.253036,2088.156894 3035.516558,2085.132371 3037.711900,2078.804089 3046.455313,2081.828886"/>
    <poly id="1029612250" type="building" color="255,230,230" fill="1" layer="-1.00" shape="3048.658027,2075.489760 3046.455313,2081.828886 3037.711900,2078.804089 3039.914605,2072.464959 3048.658027,2075.489760"/>
    <poly id="1029612251" type="building" color="255,230,230" fill="1" layer="-1.00" shape="3050.860313,2069.161754 3048.658027,2075.489760 3039.914605,2072.464959 3042.116880,2066.136949 3050.860313,2069.161754"/>
    <poly id="1029612252" type="building" color="255,230,230" fill="1" layer="-1.00" shape="3063.417441,2033.629012 3061.120352,2040.075804 3052.769768,2037.110856 3055.073771,2030.664331 3063.417441,2033.629012"/>
    <poly id="1029612253" type="building" color="255,230,230" fill="1" layer="-1.00" shape="3065.721459,2027.182492 3063.417441,2033.629012 3055.073771,2030.664331 3057.370855,2024.217537 3065.721459,2027.182492"/>
    <poly id="1029612254" type="building" color="255,230,230" fill="1" layer="-1.00" shape="3068.018992,2020.724584 3065.721459,2027.182492 3057.370855,2024.217537 3059.675301,2017.759896 3068.018992,2020.724584"/>
    <poly id="1029612255" type="building" color="255,230,230" fill="1" layer="-1.00" shape="3070.323019,2014.278066 3068.018992,2020.724584 3059.675301,2017.759896 3061.979319,2011.313374 3070.323019,2014.278066"/>
    <poly id="1029612256" type="building" color="255,230,230" fill="1" layer="-1.00" shape="3072.627052,2007.831548 3070.323019,2014.278066 3061.979319,2011.313374 3064.276418,2004.866583 3072.627052,2007.831548"/>
    <poly id="1029634516" type="landuse" color="194,194,130" fill="1" layer="-3.00" shape="2761.820068,1822.424005 2765.839190,1823.738674 2763.728550,1838.755874 2754.784289,1833.930997 2761.820068,1822.424005"/>
    <poly id="1029634517" type="landuse" color="194,194,130" fill="1" layer="-3.00" shape="2762.609425,1821.029445 2766.327373,1822.243297 2770.706265,1810.053758 2769.518878,1809.562081 2766.431125,1814.775567 2762.609425,1821.029445"/>
    <poly id="1029634518" type="landuse" color="194,194,130" fill="1" layer="-3.00" shape="2736.060492,1814.572199 2711.322713,1800.780690 2718.096663,1788.161050 2716.979568,1755.780706 2755.678993,1754.727222 2748.777707,1788.587965 2772.482163,1800.958621 2757.014896,1826.156400 2742.371702,1818.102982 2743.802404,1815.553067 2750.982941,1819.552005 2761.013488,1801.658689 2740.517674,1790.225967 2730.345239,1808.381039 2737.342322,1812.283729 2736.060492,1814.572199"/>
    <poly id="1029634520" type="building" color="255,230,230" fill="1" layer="-1.00" shape="2762.213746,1784.557126 2763.267584,1781.357821 2773.553470,1784.676044 2772.006713,1788.602205 2762.213746,1784.557126"/>
    <poly id="1029634521" type="building" color="255,230,230" fill="1" layer="-1.00" shape="2765.807781,1769.909511 2766.169738,1765.424962 2777.901582,1765.091483 2777.290312,1770.635305 2765.807781,1769.909511"/>
    <poly id="1029634522" type="building" color="255,230,230" fill="1" layer="-1.00" shape="2760.043007,1788.303084 2762.213746,1784.557126 2772.006713,1788.602205 2772.798163,1788.933696 2770.073484,1793.548888 2760.043007,1788.303084"/>
    <poly id="1029634523" type="building" color="255,230,230" fill="1" layer="-1.00" shape="2760.043007,1788.303084 2770.073484,1793.548888 2767.355732,1798.164351 2757.879195,1792.049312 2760.043007,1788.303084"/>
    <poly id="1029634524" type="building" color="255,230,230" fill="1" layer="-1.00" shape="2764.530457,1777.598761 2774.940142,1780.231423 2773.553470,1784.676044 2763.267584,1781.357821 2764.530457,1777.598761"/>
    <poly id="1029634525" type="building" color="255,230,230" fill="1" layer="-1.00" shape="2765.277078,1773.919804 2775.934315,1776.072161 2774.940142,1780.231423 2764.530457,1777.598761 2765.277078,1773.919804"/>
    <poly id="1029634526" type="building" color="255,230,230" fill="1" layer="-1.00" shape="2765.807781,1769.909511 2777.290312,1770.635305 2776.573887,1776.208435 2775.934315,1776.072161 2765.277078,1773.919804 2765.807781,1769.909511"/>
    <poly id="1029634527" type="building" color="255,230,230" fill="1" layer="-1.00" shape="2765.827125,1762.828228 2765.731364,1755.675648 2779.717334,1755.507948 2779.806585,1762.649140 2765.827125,1762.828228"/>
    <poly id="1029693757" type="building" color="255,230,230" fill="1" layer="-1.00" shape="3066.926487,1626.346810 3063.990598,1632.100561 3056.579323,1628.326021 3059.514772,1622.583384 3066.926487,1626.346810"/>
    <poly id="1029693758" type="building" color="255,230,230" fill="1" layer="-1.00" shape="3074.720208,1613.923267 3071.691707,1619.562048 3064.511078,1615.740820 3067.540006,1610.090917 3074.720208,1613.923267"/>
    <poly id="1029693759" type="building" color="255,230,230" fill="1" layer="-1.00" shape="3080.779216,1600.106937 3077.929839,1605.953140 3070.470916,1602.332616 3073.320285,1596.486409 3080.779216,1600.106937"/>
    <poly id="1029693760" type="building" color="255,230,230" fill="1" layer="-1.00" shape="3053.643218,1591.609678 3049.711410,1599.072823 3042.053433,1595.043705 3045.991722,1587.591943 3053.643218,1591.609678"/>
    <poly id="1029693761" type="building" color="255,230,230" fill="1" layer="-1.00" shape="3044.672897,1608.419199 3040.694364,1616.014150 3035.495157,1613.305857 3039.473684,1605.710902 3044.672897,1608.419199"/>
    <poly id="1029696104" type="building" color="255,230,230" fill="1" layer="-1.00" shape="3008.816110,1784.539441 3010.366272,1778.575711 3001.626992,1776.319510 3000.084198,1782.272394 3008.816110,1784.539441"/>
    <poly id="1029696105" type="building" color="255,230,230" fill="1" layer="-1.00" shape="3011.364697,1767.913626 3011.708850,1761.758089 3003.225993,1761.282405 3002.881851,1767.437943 3011.364697,1767.913626"/>
    <poly id="1029696106" type="building" color="255,230,230" fill="1" layer="-1.00" shape="3010.746524,1751.409248 3009.813668,1745.281841 3001.073579,1746.600047 3002.012935,1752.738841 3010.746524,1751.409248"/>
    <poly id="1029696107" type="building" color="255,230,230" fill="1" layer="-1.00" shape="2999.754722,1735.435560 2999.345981,1728.315287 3008.054004,1727.819838 3008.462733,1734.940111 2999.754722,1735.435560"/>
    <poly id="1029696108" type="building" color="255,230,230" fill="1" layer="-1.00" shape="2999.345981,1728.315287 2999.194327,1725.625762 2995.601288,1725.830797 2995.344629,1721.388932 2999.000419,1721.175209 3007.638783,1720.688176 3008.054004,1727.819838 2999.345981,1728.315287"/>
    <poly id="1029696109" type="building" color="255,230,230" fill="1" layer="-1.00" shape="2999.000419,1721.175209 2998.627965,1714.724471 3007.273697,1714.226589 3007.638783,1720.688176 2999.000419,1721.175209"/>
    <poly id="1029696110" type="building" color="255,230,230" fill="1" layer="-1.00" shape="3010.295538,1704.311558 3008.935760,1710.371798 3000.198930,1708.405220 3001.558264,1702.356097 3010.295538,1704.311558"/>
    <poly id="1029696111" type="building" color="255,230,230" fill="1" layer="-1.00" shape="3013.712350,1671.829526 3019.514459,1672.946701 3021.757126,1661.319846 3015.727817,1660.160399 3013.701582,1661.618026 3012.831796,1666.138437 3014.738429,1666.502335 3013.712350,1671.829526"/>
    <poly id="1029696427" type="building" color="255,230,230" fill="1" layer="-1.00" shape="3040.178616,1679.175798 3033.988348,1678.054590 3035.539661,1669.574329 3041.723016,1670.695269 3040.178616,1679.175798"/>
    <poly id="1029698216" type="building" color="255,230,230" fill="1" layer="-1.00" shape="3043.247223,1737.199166 3035.450943,1738.142134 3034.542473,1730.679434 3042.332274,1729.725076 3043.247223,1737.199166"/>
    <poly id="1029698217" type="building" color="255,230,230" fill="1" layer="-1.00" shape="3042.332274,1729.725076 3034.542473,1730.679434 3033.627509,1723.205345 3041.424245,1722.251256 3042.332274,1729.725076"/>
    <poly id="1029698218" type="building" color="255,230,230" fill="1" layer="-1.00" shape="3041.424245,1722.251256 3033.627509,1723.205345 3032.719466,1715.731528 3040.516213,1714.777437 3041.424245,1722.251256"/>
    <poly id="1029698219" type="building" color="255,230,230" fill="1" layer="-1.00" shape="3044.155244,1744.672987 3036.358975,1745.615953 3035.450943,1738.142134 3043.247223,1737.199166 3044.155244,1744.672987"/>
    <poly id="1029698220" type="building" color="255,230,230" fill="1" layer="-1.00" shape="3040.516213,1714.777437 3032.719466,1715.731528 3032.141320,1715.798053 3031.104840,1707.350453 3031.042142,1706.824647 3032.400960,1706.654955 3032.133302,1704.450856 3035.797784,1704.014791 3036.091817,1706.431491 3039.449916,1706.028017 3040.516213,1714.777437"/>
    <poly id="1029700099" type="landuse" color="194,194,130" fill="1" layer="-3.00" shape="3046.618768,1767.195638 3041.980046,1765.232992 3030.022812,1755.167818 3029.126748,1753.785485 3024.268963,1738.774857 3023.780293,1735.303845 3023.187825,1721.873813 3026.313361,1700.059186 3031.884646,1702.648369 3032.133302,1704.450856 3032.400960,1706.654955 3031.042142,1706.824647 3031.104840,1707.350453 3032.141320,1715.798053 3032.719466,1715.731528 3036.358975,1745.615953 3035.850070,1745.685179 3036.948791,1754.669706 3045.253516,1753.668634 3051.872287,1752.869037 3051.495780,1766.250133 3046.618768,1767.195638"/>
    <poly id="1029700100" type="landuse" color="194,194,130" fill="1" layer="-3.00" shape="3043.548833,1768.389821 3035.730374,1770.968811 3029.065849,1757.123703 3029.737485,1756.793577 3043.548833,1768.389821"/>
    <poly id="1029704383" type="building" color="255,230,230" fill="1" layer="-1.00" shape="3065.331722,1683.742819 3059.681734,1680.504680 3063.981773,1673.022508 3069.638690,1676.260921 3065.331722,1683.742819"/>
    <poly id="1029704384" type="building" color="255,230,230" fill="1" layer="-1.00" shape="3056.765367,1668.520636 3052.796831,1675.859854 3058.393624,1678.862067 3062.354808,1671.533701 3056.765367,1668.520636"/>
    <poly id="1029704385" type="building" color="255,230,230" fill="1" layer="-1.00" shape="3079.113463,1690.059853 3085.900653,1693.476019 3089.905204,1685.570328 3083.111081,1682.153887 3079.113463,1690.059853"/>
    <poly id="1029704386" type="building" color="255,230,230" fill="1" layer="-1.00" shape="3131.643503,1686.275163 3137.073223,1689.115050 3140.863138,1681.913677 3135.440336,1679.074056 3131.643503,1686.275163"/>
    <poly id="1029704387" type="building" color="255,230,230" fill="1" layer="-1.00" shape="3123.478949,1670.890373 3117.888671,1667.899476 3113.963322,1675.195796 3119.553594,1678.186689 3123.478949,1670.890373"/>
    <poly id="1029704388" type="building" color="255,230,230" fill="1" layer="-1.00" shape="3111.321861,1663.278119 3117.016855,1666.428990 3113.079414,1673.502133 3107.391351,1670.351537 3111.321861,1663.278119"/>
    <poly id="1029704389" type="building" color="255,230,230" fill="1" layer="-1.00" shape="3094.140948,1664.456035 3099.985690,1667.501378 3103.858236,1660.136174 3098.013921,1657.079709 3094.140948,1664.456035"/>
    <poly id="1029704390" type="building" color="255,230,230" fill="1" layer="-1.00" shape="3080.424430,1658.776222 3086.053244,1661.846527 3090.204481,1654.269484 3084.582584,1651.199445 3080.424430,1658.776222"/>
    <poly id="1029704391" type="building" color="255,230,230" fill="1" layer="-1.00" shape="3059.752058,1647.602563 3053.838899,1644.532330 3057.817869,1636.926270 3063.724110,1639.996238 3059.752058,1647.602563"/>
    <poly id="1029707840" type="building" color="255,230,230" fill="1" layer="-1.00" shape="3037.845317,1809.356819 3041.152751,1804.207728 3033.859948,1799.535866 3030.545596,1804.684692 3037.845317,1809.356819"/>
    <poly id="1029707841" type="building" color="255,230,230" fill="1" layer="-1.00" shape="3049.070840,1800.140504 3054.793141,1797.257036 3050.653143,1789.089197 3044.930835,1791.972670 3049.070840,1800.140504"/>
    <poly id="1029707842" type="building" color="255,230,230" fill="1" layer="-1.00" shape="3062.778501,1795.731310 3068.777829,1796.410834 3069.822094,1787.242675 3063.822754,1786.563149 3062.778501,1795.731310"/>
    <poly id="1029707843" type="building" color="255,230,230" fill="1" layer="-1.00" shape="3080.491536,1795.654208 3086.790337,1796.122735 3086.158067,1804.683394 3079.852353,1804.214598 3080.491536,1795.654208"/>
    <poly id="1029707844" type="building" color="255,230,230" fill="1" layer="-1.00" shape="3096.963398,1804.459258 3090.759803,1804.038975 3090.186802,1812.679894 3096.390820,1813.089058 3096.963398,1804.459258"/>
    <poly id="1029707845" type="building" color="255,230,230" fill="1" layer="-1.00" shape="3113.476747,1813.265984 3112.905442,1821.862428 3106.818703,1821.468956 3107.390431,1812.861393 3113.476747,1813.265984"/>
    <poly id="1029707846" type="building" color="255,230,230" fill="1" layer="-1.00" shape="3122.264234,1782.663912 3128.589050,1782.821716 3128.810762,1773.944378 3122.485935,1773.786574 3122.264234,1782.663912"/>
    <poly id="1029707847" type="building" color="255,230,230" fill="1" layer="-1.00" shape="3106.655947,1775.006021 3103.757494,1775.004246 3103.754280,1776.685555 3100.453819,1776.679227 3100.480733,1759.999561 3106.679667,1760.007663 3106.678861,1763.403906 3106.655947,1775.006021"/>
    <poly id="1029707848" type="building" color="255,230,230" fill="1" layer="-1.00" shape="3090.987471,1767.290156 3097.295439,1767.347044 3097.372544,1758.619959 3091.057641,1758.562801 3090.987471,1767.290156"/>
    <poly id="1029707849" type="building" color="255,230,230" fill="1" layer="-1.00" shape="3075.688058,1759.711233 3075.792367,1751.174512 3069.235993,1751.085688 3069.131695,1759.622408 3075.688058,1759.711233"/>
    <poly id="1029707850" type="building" color="255,230,230" fill="1" layer="-1.00" shape="3059.838562,1743.837353 3053.404655,1743.630839 3053.137703,1751.893964 3059.578523,1752.100747 3059.838562,1743.837353"/>
    <poly id="1029846137" type="building" color="255,230,230" fill="1" layer="-1.00" shape="2963.272755,1913.769821 2961.771185,1919.200961 2969.873262,1921.432254 2971.374841,1916.001116 2963.272755,1913.769821"/>
    <poly id="1029846138" type="building" color="255,230,230" fill="1" layer="-1.00" shape="2954.856434,1901.994459 2945.939943,1899.664618 2948.195994,1891.067067 2957.112499,1893.396912 2954.856434,1901.994459"/>
    <poly id="1029846139" type="building" color="255,230,230" fill="1" layer="-1.00" shape="3006.527332,1926.035667 3008.144097,1920.141348 2995.142446,1916.594188 2993.525696,1922.488511 3005.024531,1925.631843 3006.527332,1926.035667"/>
    <poly id="1029846140" type="building" color="255,230,230" fill="1" layer="-1.00" shape="3001.781958,1909.036213 3000.109793,1915.106537 3008.747561,1917.470145 3010.419302,1911.410941 3001.781958,1909.036213"/>
    <poly id="1029846141" type="building" color="255,230,230" fill="1" layer="-1.00" shape="3003.905605,1901.346611 3012.728596,1903.761991 3013.139822,1902.285902 3015.520167,1902.946671 3016.861205,1898.077181 3014.219498,1897.361674 3005.650932,1895.000759 3003.905605,1901.346611"/>
    <poly id="1029846142" type="building" color="255,230,230" fill="1" layer="-1.00" shape="3005.650932,1895.000759 3014.219498,1897.361674 3015.826752,1891.533798 3007.257743,1889.183999 3005.650932,1895.000759"/>
    <poly id="1029846143" type="building" color="255,230,230" fill="1" layer="-1.00" shape="3010.568603,1878.968458 3018.547407,1881.161610 3016.956164,1886.934434 3008.977369,1884.741284 3010.568603,1878.968458"/>
    <poly id="1029846144" type="building" color="255,230,230" fill="1" layer="-1.00" shape="3010.568603,1878.968458 3012.579726,1871.675340 3021.079961,1874.011327 3019.932409,1878.186840 3021.153527,1878.524000 3020.296867,1881.641872 3018.547407,1881.161610 3010.568603,1878.968458"/>
    <poly id="1029846145" type="building" color="255,230,230" fill="1" layer="-1.00" shape="3022.575251,1867.143500 3014.438484,1864.910773 3016.045311,1859.094015 3024.182087,1861.326744 3022.575251,1867.143500"/>
    <poly id="1029846146" type="building" color="255,230,230" fill="1" layer="-1.00" shape="3013.589667,1848.987563 3015.289973,1843.085370 3024.403406,1845.701395 3022.703089,1851.603586 3013.589667,1848.987563"/>
    <poly id="1029846147" type="building" color="255,230,230" fill="1" layer="-1.00" shape="2973.372167,1847.017833 2979.360102,1848.698989 2977.341246,1855.835921 2971.353319,1854.154768 2973.372167,1847.017833"/>
    <poly id="1029846148" type="building" color="255,230,230" fill="1" layer="-1.00" shape="2994.386281,1827.549002 2996.394373,1820.155543 2984.098216,1816.825251 2982.090142,1824.218714 2985.740560,1825.207391 2994.386281,1827.549002"/>
    <poly id="1029846149" type="building" color="255,230,230" fill="1" layer="-1.00" shape="2989.145226,1810.986784 2988.034912,1815.096944 2984.802927,1814.224806 2984.098216,1816.825251 2996.394373,1820.155543 2998.223258,1813.445483 2989.145226,1810.986784"/>
    <poly id="1029846150" type="building" color="255,230,230" fill="1" layer="-1.00" shape="2989.145226,1810.986784 2998.223258,1813.445483 3000.045224,1806.735153 2990.974103,1804.276721 2989.145226,1810.986784"/>
    <poly id="1029846151" type="building" color="255,230,230" fill="1" layer="-1.00" shape="2990.974103,1804.276721 3000.045224,1806.735153 3001.867193,1800.024823 2993.125362,1797.657182 2991.121429,1797.122464 2989.590795,1802.764035 2991.265425,1803.207960 2990.974103,1804.276721"/>
    <poly id="1029846152" type="building" color="255,230,230" fill="1" layer="-1.00" shape="3001.867193,1800.024823 3003.696090,1793.314765 2994.947324,1790.946850 2993.125362,1797.657182 3001.867193,1800.024823"/>
    <poly id="1029846153" type="building" color="255,230,230" fill="1" layer="-1.00" shape="2991.890659,1842.996545 2993.690473,1837.031415 2984.328211,1834.216441 2982.528407,1840.181574 2991.890659,1842.996545"/>
    <poly id="1029846154" type="building" color="255,230,230" fill="1" layer="-1.00" shape="3023.202716,1821.557727 3024.993097,1815.124554 3033.849551,1817.574673 3032.058725,1824.018961 3023.202716,1821.557727"/>
    <poly id="1029846155" type="building" color="255,230,230" fill="1" layer="-1.00" shape="3021.411904,1828.002018 3023.202716,1821.557727 3032.058725,1824.018961 3030.268337,1830.452131 3021.411904,1828.002018"/>
    <poly id="1029846156" type="building" color="255,230,230" fill="1" layer="-1.00" shape="3019.621530,1834.435192 3021.411904,1828.002018 3030.268337,1830.452131 3028.477518,1836.896420 3019.621530,1834.435192"/>
    <poly id="1029848064" type="building" color="255,230,230" fill="1" layer="-1.00" shape="2995.396942,1953.796065 2997.266486,1946.931697 2988.765066,1944.629102 2986.895534,1951.493473 2995.396942,1953.796065"/>
    <poly id="1029848065" type="building" color="255,230,230" fill="1" layer="-1.00" shape="2997.266486,1946.931697 2997.411928,1946.402876 3000.183856,1947.156862 3001.923547,1940.777384 2999.171952,1940.035326 2990.650185,1937.720799 2988.765066,1944.629102 2997.266486,1946.931697"/>
    <poly id="1029848066" type="building" color="255,230,230" fill="1" layer="-1.00" shape="2990.650185,1937.720799 2999.171952,1940.035326 3000.797364,1934.096801 2992.268663,1931.782002 2990.650185,1937.720799"/>
    <poly id="1029848067" type="building" color="255,230,230" fill="1" layer="-1.00" shape="2989.723124,1968.239935 2991.358029,1962.413132 2982.763609,1960.006699 2981.128280,1965.844623 2989.723124,1968.239935"/>
    <poly id="1029848068" type="building" color="255,230,230" fill="1" layer="-1.00" shape="2949.862892,1974.379637 2958.124258,1975.013645 2958.595582,1968.796256 2950.340695,1968.173635 2949.862892,1974.379637"/>
    <poly id="1029848069" type="building" color="255,230,230" fill="1" layer="-1.00" shape="2957.077971,1928.594274 2958.954810,1921.897209 2967.295737,1924.226897 2965.418888,1930.923959 2957.077971,1928.594274"/>
    <poly id="1029848070" type="building" color="255,230,230" fill="1" layer="-1.00" shape="2955.201136,1935.291339 2957.077971,1928.594274 2965.418888,1930.923959 2963.535119,1937.620751 2955.201136,1935.291339"/>
    <poly id="1029848071" type="building" color="255,230,230" fill="1" layer="-1.00" shape="2953.324306,1941.988405 2955.201136,1935.291339 2963.535119,1937.620751 2961.658277,1944.317814 2953.324306,1941.988405"/>
    <poly id="1029848072" type="building" color="255,230,230" fill="1" layer="-1.00" shape="2951.440556,1948.685202 2953.324306,1941.988405 2961.658277,1944.317814 2959.781440,1951.014878 2951.440556,1948.685202"/>
    <poly id="1029848073" type="building" color="255,230,230" fill="1" layer="-1.00" shape="2949.564167,1955.371150 2951.440556,1948.685202 2959.781440,1951.014878 2957.905041,1957.700824 2949.564167,1955.371150"/>
    <poly id="1029849573" type="building" color="255,230,230" fill="1" layer="-1.00" shape="2948.605036,1994.541163 2953.534836,1990.813811 2948.126492,1983.698979 2943.196257,1987.437456 2948.605036,1994.541163"/>
    <poly id="1029849574" type="building" color="255,230,230" fill="1" layer="-1.00" shape="2935.134002,2002.322719 2940.110947,1998.630598 2934.826349,1991.542878 2929.849402,1995.235004 2935.134002,2002.322719"/>
    <poly id="1029849575" type="building" color="255,230,230" fill="1" layer="-1.00" shape="2925.194688,2017.157061 2922.891807,2011.488465 2931.021883,2008.197685 2933.331248,2013.877672 2925.194688,2017.157061"/>
    <poly id="1029849576" type="building" color="255,230,230" fill="1" layer="-1.00" shape="2943.036082,2030.123981 2936.944332,2030.576785 2936.328823,2022.357193 2942.420583,2021.904388 2943.036082,2030.123981"/>
    <poly id="1029849577" type="building" color="255,230,230" fill="1" layer="-1.00" shape="2957.673258,2026.931142 2951.314945,2027.462614 2950.614224,2019.117208 2956.972548,2018.585734 2957.673258,2026.931142"/>
    <poly id="1029849578" type="building" color="255,230,230" fill="1" layer="-1.00" shape="2970.775405,2031.094584 2966.689279,2026.525614 2972.989198,2020.914180 2977.082682,2025.472307 2970.775405,2031.094584"/>
    <poly id="1029849579" type="building" color="255,230,230" fill="1" layer="-1.00" shape="2981.738772,2043.336815 2976.889266,2039.851588 2982.385818,2032.260147 2987.235328,2035.745380 2981.738772,2043.336815"/>
    <poly id="1029849580" type="building" color="255,230,230" fill="1" layer="-1.00" shape="2995.510771,2051.301329 2990.344043,2048.482966 2994.629473,2040.654991 2999.796207,2043.473358 2995.510771,2051.301329"/>
    <poly id="1029849581" type="building" color="255,230,230" fill="1" layer="-1.00" shape="3010.416505,2058.463831 3004.365307,2055.922734 3007.780165,2047.838098 3013.831372,2050.379199 3010.416505,2058.463831"/>
    <poly id="1029849582" type="building" color="255,230,230" fill="1" layer="-1.00" shape="3025.938279,2062.276415 3019.975325,2060.139614 3022.892594,2052.013301 3028.855557,2054.150106 3025.938279,2062.276415"/>
    <poly id="1029849583" type="building" color="255,230,230" fill="1" layer="-1.00" shape="3017.655083,2025.418241 3009.684388,2022.312295 3014.104775,2011.026514 3022.068562,2014.132197 3020.519924,2018.102759 3017.655083,2025.418241"/>
    <poly id="1029849584" type="building" color="255,230,230" fill="1" layer="-1.00" shape="3036.467814,2032.677579 3030.376338,2030.279640 3033.431201,2022.537302 3039.523119,2024.924126 3036.467814,2032.677579"/>
    <poly id="1029849585" type="building" color="255,230,230" fill="1" layer="-1.00" shape="3000.017224,2017.013332 2994.864407,2013.126520 2999.945091,2006.420832 3005.098345,2010.296531 3000.017224,2017.013332"/>
    <poly id="1029849586" type="building" color="255,230,230" fill="1" layer="-1.00" shape="2983.367032,1986.487742 2981.297488,1980.171236 2989.345811,1977.556609 2991.415347,1983.873119 2983.367032,1986.487742"/>
    <poly id="1029849587" type="building" color="255,230,230" fill="1" layer="-1.00" shape="2985.429646,1992.803979 2983.367032,1986.487742 2991.415347,1983.873119 2993.477953,1990.189359 2985.429646,1992.803979"/>
    <poly id="1029849588" type="building" color="255,230,230" fill="1" layer="-1.00" shape="2987.492255,1999.120217 2985.429646,1992.803979 2993.477953,1990.189359 2995.540553,1996.505600 2987.492255,1999.120217"/>
    <poly id="1029868074" type="building" color="255,230,230" fill="1" layer="-1.00" shape="2844.292149,1464.542991 2854.839627,1459.564614 2850.283179,1449.966569 2846.312937,1451.838448 2845.396451,1449.909730 2842.584738,1451.236595 2843.148130,1452.438893 2839.396874,1454.207959 2844.292149,1464.542991"/>
    <poly id="1029868075" type="building" color="255,230,230" fill="1" layer="-1.00" shape="2829.514919,1478.053199 2828.202478,1484.505054 2836.444690,1486.184782 2837.764066,1479.733199 2829.514919,1478.053199"/>
    <poly id="1029868076" type="building" color="255,230,230" fill="1" layer="-1.00" shape="2825.780337,1493.274342 2824.428092,1499.680105 2832.578533,1501.400793 2833.930789,1494.995032 2825.780337,1493.274342"/>
    <poly id="1029868077" type="building" color="255,230,230" fill="1" layer="-1.00" shape="2821.712551,1508.504772 2822.984719,1502.374269 2836.461460,1505.148821 2835.641617,1509.103299 2832.772912,1508.512678 2832.320572,1510.688700 2821.712551,1508.504772"/>
    <poly id="1029868078" type="building" color="255,230,230" fill="1" layer="-1.00" shape="2826.063051,1525.700162 2827.462048,1518.984434 2819.447949,1517.324742 2818.048962,1524.040473 2826.063051,1525.700162"/>
    <poly id="1029868079" type="building" color="255,230,230" fill="1" layer="-1.00" shape="2823.455392,1540.831601 2824.696846,1534.421520 2816.499280,1532.843764 2815.257836,1539.253847 2823.455392,1540.831601"/>
    <poly id="1029868080" type="building" color="255,230,230" fill="1" layer="-1.00" shape="2812.466688,1555.179879 2813.871270,1548.854100 2825.236506,1551.357044 2823.838834,1557.683090 2812.466688,1555.179879"/>
    <poly id="1029868081" type="building" color="255,230,230" fill="1" layer="-1.00" shape="2818.330074,1571.988811 2819.654173,1565.593085 2811.096618,1563.823141 2809.772530,1570.218869 2818.330074,1571.988811"/>