<?xml version="1.0" encoding="UTF-8"?>

<!-- generated on 2023-01-25 17:04:09 by Eclipse SUMO netedit Version 1.12.0
<configuration xmlns:xsi="http://www.w3.org/2001/XMLSchema-instance" xsi:noNamespaceSchemaLocation="http://sumo.dlr.de/xsd/netconvertConfiguration.xsd">

    <input>
        <sumo-net-file value="london.net.xml"/>
    </input>

    <output>
        <output-file value="london.net.xml"/>
    </output>

    <processing>
        <geometry.min-radius.fix.railways value="false"/>
        <geometry.max-grade.fix value="false"/>
        <offset.disable-normalization value="true"/>
        <lefthand value="false"/>
    </processing>

    <junctions>
        <no-turnarounds value="true"/>
        <junctions.corner-detail value="5"/>
        <junctions.limit-turn-speed value="5.5"/>
        <rectangular-lane-cut value="false"/>
    </junctions>

    <pedestrian>
        <walkingareas value="false"/>
    </pedestrian>

    <report>
        <aggregate-warnings value="5"/>
    </report>

</configuration>
-->

<net version="1.9" junctionCornerDetail="5" limitTurnSpeed="5.50" xmlns:xsi="http://www.w3.org/2001/XMLSchema-instance" xsi:noNamespaceSchemaLocation="http://sumo.dlr.de/xsd/net_file.xsd">

    <location netOffset="-694330.79,-5718919.48" convBoundary="843.68,0.00,3445.70,2514.35" origBoundary="-0.193862,51.587039,-0.143653,51.609393" projParameter="+proj=utm +zone=30 +ellps=WGS84 +datum=WGS84 +units=m +no_defs"/>

    <type id="highway.bridleway" priority="1" numLanes="1" speed="2.78" allow="pedestrian" oneway="1" width="2.00"/>
    <type id="highway.bus_guideway" priority="1" numLanes="1" speed="27.78" allow="bus" oneway="1"/>
    <type id="highway.cycleway" priority="1" numLanes="1" speed="8.33" allow="bicycle" oneway="0" width="1.00"/>
    <type id="highway.footway" priority="1" numLanes="1" speed="2.78" allow="pedestrian" oneway="1" width="2.00"/>
    <type id="highway.ford" priority="1" numLanes="1" speed="2.78" allow="army" oneway="0"/>
    <type id="highway.living_street" priority="2" numLanes="1" speed="2.78" disallow="tram rail_urban rail rail_electric rail_fast ship" oneway="0"/>
    <type id="highway.motorway" priority="14" numLanes="2" speed="39.44" allow="private emergency authority army vip passenger hov taxi bus coach delivery truck trailer motorcycle evehicle custom1 custom2" oneway="1"/>
    <type id="highway.motorway_link" priority="9" numLanes="1" speed="22.22" allow="private emergency authority army vip passenger hov taxi bus coach delivery truck trailer motorcycle evehicle custom1 custom2" oneway="1"/>
    <type id="highway.path" priority="1" numLanes="1" speed="2.78" allow="pedestrian bicycle" oneway="0" width="2.00"/>
    <type id="highway.pedestrian" priority="1" numLanes="1" speed="2.78" allow="pedestrian" oneway="1" width="2.00"/>
    <type id="highway.primary" priority="12" numLanes="2" speed="27.78" disallow="tram rail_urban rail rail_electric rail_fast ship" oneway="0"/>
    <type id="highway.primary_link" priority="7" numLanes="1" speed="22.22" disallow="tram rail_urban rail rail_electric rail_fast ship" oneway="0"/>
    <type id="highway.raceway" priority="15" numLanes="2" speed="83.33" allow="vip" oneway="0"/>
    <type id="highway.residential" priority="3" numLanes="1" speed="13.89" disallow="tram rail_urban rail rail_electric rail_fast ship" oneway="0"/>
    <type id="highway.secondary" priority="11" numLanes="1" speed="27.78" disallow="tram rail_urban rail rail_electric rail_fast ship" oneway="0"/>
    <type id="highway.secondary_link" priority="6" numLanes="1" speed="22.22" disallow="tram rail_urban rail rail_electric rail_fast ship" oneway="0"/>
    <type id="highway.service" priority="1" numLanes="1" speed="5.56" allow="pedestrian delivery bicycle" oneway="0"/>
    <type id="highway.stairs" priority="1" numLanes="1" speed="1.39" allow="pedestrian" oneway="1" width="2.00"/>
    <type id="highway.step" priority="1" numLanes="1" speed="1.39" allow="pedestrian" oneway="1" width="2.00"/>
    <type id="highway.steps" priority="1" numLanes="1" speed="1.39" allow="pedestrian" oneway="1" width="2.00"/>
    <type id="highway.tertiary" priority="10" numLanes="1" speed="22.22" disallow="tram rail_urban rail rail_electric rail_fast ship" oneway="0"/>
    <type id="highway.tertiary_link" priority="5" numLanes="1" speed="22.22" disallow="tram rail_urban rail rail_electric rail_fast ship" oneway="0"/>
    <type id="highway.track" priority="1" numLanes="1" speed="5.56" allow="pedestrian motorcycle moped bicycle" oneway="0"/>
    <type id="highway.trunk" priority="13" numLanes="2" speed="27.78" disallow="pedestrian bicycle tram rail_urban rail rail_electric rail_fast ship" oneway="0"/>
    <type id="highway.trunk_link" priority="8" numLanes="1" speed="22.22" disallow="pedestrian bicycle tram rail_urban rail rail_electric rail_fast ship" oneway="0"/>
    <type id="highway.unclassified" priority="4" numLanes="1" speed="13.89" disallow="tram rail_urban rail rail_electric rail_fast ship" oneway="0"/>
    <type id="highway.unsurfaced" priority="1" numLanes="1" speed="8.33" disallow="tram rail_urban rail rail_electric rail_fast ship" oneway="0"/>
    <type id="railway.highspeed" priority="21" numLanes="1" speed="69.44" allow="rail_fast" oneway="1"/>
    <type id="railway.light_rail" priority="19" numLanes="1" speed="27.78" allow="rail_urban" oneway="1"/>
    <type id="railway.preserved" priority="16" numLanes="1" speed="27.78" allow="rail" oneway="1"/>
    <type id="railway.rail" priority="20" numLanes="1" speed="44.44" allow="rail" oneway="1"/>
    <type id="railway.subway" priority="18" numLanes="1" speed="27.78" allow="rail_urban" oneway="1"/>
    <type id="railway.tram" priority="17" numLanes="1" speed="13.89" allow="tram" oneway="1"/>

    <edge id=":10016051450_0" function="internal">
        <lane id=":10016051450_0_0" index="0" allow="pedestrian delivery bicycle" speed="3.65" length="4.67" shape="1232.75,1255.26 1231.59,1256.12 1230.71,1256.22 1230.09,1255.58 1229.75,1254.18"/>
    </edge>
    <edge id=":10075941389_0" function="internal">
        <lane id=":10075941389_0_0" index="0" disallow="tram rail_urban rail rail_electric rail_fast ship" speed="12.00" length="5.06" shape="1362.89,1665.18 1362.34,1666.59 1362.04,1667.63 1361.58,1668.53 1360.54,1669.54"/>
    </edge>
    <edge id=":10075941389_1" function="internal">
        <lane id=":10075941389_1_0" index="0" disallow="tram rail_urban rail rail_electric rail_fast ship" speed="11.92" length="4.99" shape="1357.40,1667.92 1358.47,1666.95 1359.03,1666.12 1359.42,1665.15 1360.01,1663.78"/>
    </edge>
    <edge id=":1012884793_0" function="internal">
        <lane id=":1012884793_0_0" index="0" allow="pedestrian delivery bicycle" speed="5.32" length="5.34" shape="1642.03,705.38 1640.72,704.55 1639.48,704.26 1638.33,704.52 1637.26,705.32"/>
    </edge>
    <edge id=":1012884793_1" function="internal">
        <lane id=":1012884793_1_0" index="0" allow="pedestrian delivery bicycle" speed="6.80" length="10.57" shape="1642.03,705.38 1640.05,703.23 1639.29,700.99 1639.77,698.69 1641.48,696.31"/>
    </edge>
    <edge id=":1012884793_2" function="internal">
        <lane id=":1012884793_2_0" index="0" allow="pedestrian delivery bicycle" speed="3.65" length="4.67" shape="1642.03,705.38 1641.61,704.00 1641.80,703.13 1642.62,702.76 1644.05,702.90"/>
    </edge>
    <edge id=":1012884793_3" function="internal">
        <lane id=":1012884793_3_0" index="0" allow="pedestrian delivery bicycle" speed="4.96" length="5.10" shape="1643.79,698.52 1642.96,699.67 1642.73,700.79 1643.10,701.86 1644.05,702.90"/>
    </edge>
    <edge id=":1012884793_4" function="internal">
        <lane id=":1012884793_4_0" index="0" disallow="tram rail_urban rail rail_electric rail_fast ship" speed="8.94" length="9.42" shape="1643.79,698.52 1637.26,705.32"/>
    </edge>
    <edge id=":1012884793_5" function="internal">
        <lane id=":1012884793_5_0" index="0" disallow="tram rail_urban rail rail_electric rail_fast ship" speed="8.94" length="9.42" shape="1634.95,703.10 1641.48,696.31"/>
    </edge>
    <edge id=":1012884793_6" function="internal">
        <lane id=":1012884793_6_0" index="0" allow="pedestrian delivery bicycle" speed="7.08" length="3.11" shape="1634.95,703.10 1637.06,701.49 1637.50,701.37"/>
    </edge>
    <edge id=":1012884793_7" function="internal">
        <lane id=":1012884793_7_0" index="0" allow="pedestrian delivery bicycle" speed="7.08" length="7.09" shape="1637.50,701.37 1639.28,700.91 1641.61,701.39 1644.05,702.90"/>
    </edge>
    <edge id=":1012884801_0" function="internal">
        <lane id=":1012884801_0_0" index="0" allow="pedestrian delivery bicycle" speed="3.65" length="4.67" shape="1670.74,724.68 1671.17,726.06 1670.97,726.93 1670.15,727.30 1668.72,727.16"/>
    </edge>
    <edge id=":1012884834_0" function="internal">
        <lane id=":1012884834_0_0" index="0" allow="pedestrian bicycle" speed="2.78" length="2.92" width="2.00" shape="1601.83,680.86 1602.03,681.73 1601.86,682.27 1601.34,682.46 1600.45,682.30"/>
    </edge>
    <edge id=":10152187698_0" function="internal">
        <lane id=":10152187698_0_0" index="0" allow="pedestrian delivery bicycle" speed="5.56" length="5.00" shape="2759.47,1723.23 2754.47,1723.35"/>
    </edge>
    <edge id=":10152187698_1" function="internal">
        <lane id=":10152187698_1_0" index="0" allow="pedestrian delivery bicycle" speed="3.65" length="1.44" shape="2759.47,1723.23 2758.25,1722.46"/>
    </edge>
    <edge id=":10152187698_4" function="internal">
        <lane id=":10152187698_4_0" index="0" allow="pedestrian delivery bicycle" speed="3.65" length="3.23" shape="2758.25,1722.46 2757.83,1721.67 2758.21,1720.86 2759.39,1720.03"/>
    </edge>
    <edge id=":10152187698_2" function="internal">
        <lane id=":10152187698_2_0" index="0" allow="pedestrian delivery bicycle" speed="5.56" length="5.00" shape="2754.39,1720.15 2759.39,1720.03"/>
    </edge>
    <edge id=":10152187698_3" function="internal">
        <lane id=":10152187698_3_0" index="0" allow="pedestrian delivery bicycle" speed="3.65" length="1.44" shape="2754.39,1720.15 2755.61,1720.92"/>
    </edge>
    <edge id=":10152187698_5" function="internal">
        <lane id=":10152187698_5_0" index="0" allow="pedestrian delivery bicycle" speed="3.65" length="3.23" shape="2755.61,1720.92 2756.03,1721.71 2755.65,1722.52 2754.47,1723.35"/>
    </edge>
    <edge id=":10152187702_0" function="internal">
        <lane id=":10152187702_0_0" index="0" allow="pedestrian delivery bicycle" speed="3.65" length="4.67" shape="2718.40,1724.27 2717.18,1723.50 2716.76,1722.71 2717.14,1721.90 2718.32,1721.07"/>
    </edge>
    <edge id=":10175806494_0" function="internal">
        <lane id=":10175806494_0_0" index="0" allow="pedestrian delivery bicycle" speed="5.56" length="0.30" shape="3156.31,1508.67 3156.16,1508.93"/>
    </edge>
    <edge id=":10175806494_1" function="internal">
        <lane id=":10175806494_1_0" index="0" allow="pedestrian delivery bicycle" speed="5.56" length="0.30" shape="3153.39,1507.33 3153.54,1507.07"/>
    </edge>
    <edge id=":10177883328_0" function="internal">
        <lane id=":10177883328_0_0" index="0" allow="pedestrian delivery bicycle" speed="5.56" length="0.66" shape="2911.30,1284.68 2911.86,1285.04"/>
    </edge>
    <edge id=":10177883328_1" function="internal">
        <lane id=":10177883328_1_0" index="0" allow="pedestrian delivery bicycle" speed="5.56" length="0.69" shape="2913.59,1282.35 2913.01,1281.98"/>
    </edge>
    <edge id=":10177883329_0" function="internal">
        <lane id=":10177883329_0_0" index="0" allow="pedestrian delivery bicycle" speed="4.91" length="4.62" shape="2908.54,1282.93 2907.52,1282.52 2906.53,1282.61 2905.59,1283.19 2904.68,1284.28"/>
    </edge>
    <edge id=":10177883329_1" function="internal">
        <lane id=":10177883329_1_0" index="0" allow="pedestrian delivery bicycle" speed="6.91" length="9.80" shape="2908.54,1282.93 2906.52,1281.21 2905.49,1279.23 2905.44,1276.99 2906.38,1274.49"/>
    </edge>
    <edge id=":10177883329_2" function="internal">
        <lane id=":10177883329_2_0" index="0" allow="pedestrian delivery bicycle" speed="3.65" length="4.67" shape="2908.54,1282.93 2907.96,1281.61 2908.05,1280.72 2908.81,1280.26 2910.25,1280.23"/>
    </edge>
    <edge id=":10177883329_3" function="internal">
        <lane id=":10177883329_3_0" index="0" allow="pedestrian delivery bicycle" speed="5.10" length="4.88" shape="2909.19,1276.02 2908.72,1277.27 2908.74,1278.38 2909.25,1279.37 2910.25,1280.23"/>
    </edge>
    <edge id=":10177883329_4" function="internal">
        <lane id=":10177883329_4_0" index="0" disallow="tram rail_urban rail rail_electric rail_fast ship" speed="8.94" length="9.42" shape="2909.19,1276.02 2907.90,1278.50 2907.07,1280.23 2906.17,1281.91 2904.68,1284.28"/>
    </edge>
    <edge id=":10177883329_5" function="internal">
        <lane id=":10177883329_5_0" index="0" disallow="tram rail_urban rail rail_electric rail_fast ship" speed="8.94" length="9.42" shape="2901.86,1282.74 2903.35,1280.38 2904.25,1278.69 2905.09,1276.97 2906.38,1274.49"/>
    </edge>
    <edge id=":10177883329_6" function="internal">
        <lane id=":10177883329_6_0" index="0" allow="pedestrian delivery bicycle" speed="6.84" length="3.40" shape="2901.86,1282.74 2903.75,1280.52 2904.17,1280.28"/>
    </edge>
    <edge id=":10177883329_7" function="internal">
        <lane id=":10177883329_7_0" index="0" allow="pedestrian delivery bicycle" speed="6.84" length="6.52" shape="2904.17,1280.28 2905.78,1279.36 2907.95,1279.26 2910.25,1280.23"/>
    </edge>
    <edge id=":10186775982_0" function="internal">
        <lane id=":10186775982_0_0" index="0" allow="pedestrian delivery bicycle" speed="3.65" length="4.67" shape="2562.95,1914.91 2562.58,1913.51 2562.81,1912.65 2563.64,1912.32 2565.07,1912.51"/>
    </edge>
    <edge id=":10186775983_0" function="internal">
        <lane id=":10186775983_0_0" index="0" disallow="tram rail_urban rail rail_electric rail_fast ship" speed="8.94" length="9.41" shape="2584.42,1925.57 2582.48,1927.59 2581.11,1928.93 2579.84,1930.36 2578.23,1932.63"/>
    </edge>
    <edge id=":10186775983_1" function="internal">
        <lane id=":10186775983_1_0" index="0" allow="pedestrian delivery bicycle" speed="6.89" length="3.45" shape="2584.42,1925.57 2582.29,1927.33 2581.63,1927.53"/>
    </edge>
    <edge id=":10186775983_7" function="internal">
        <lane id=":10186775983_7_0" index="0" allow="pedestrian delivery bicycle" speed="6.89" length="6.71" shape="2581.63,1927.53 2580.09,1927.99 2577.83,1927.55 2575.49,1926.01"/>
    </edge>
    <edge id=":10186775983_2" function="internal">
        <lane id=":10186775983_2_0" index="0" allow="pedestrian delivery bicycle" speed="5.08" length="5.04" shape="2577.61,1923.61 2578.78,1924.38 2579.90,1924.61 2580.99,1924.29 2582.05,1923.42"/>
    </edge>
    <edge id=":10186775983_3" function="internal">
        <lane id=":10186775983_3_0" index="0" allow="pedestrian delivery bicycle" speed="7.19" length="10.00" shape="2577.61,1923.61 2579.20,1925.55 2579.83,1927.69 2579.51,1930.06 2578.23,1932.63"/>
    </edge>
    <edge id=":10186775983_4" function="internal">
        <lane id=":10186775983_4_0" index="0" allow="pedestrian delivery bicycle" speed="3.65" length="4.67" shape="2577.61,1923.61 2577.98,1925.01 2577.75,1925.87 2576.92,1926.21 2575.49,1926.01"/>
    </edge>
    <edge id=":10186775983_5" function="internal">
        <lane id=":10186775983_5_0" index="0" allow="pedestrian delivery bicycle" speed="5.27" length="4.94" shape="2575.83,1930.46 2576.45,1929.20 2576.61,1928.03 2576.29,1926.97 2575.49,1926.01"/>
    </edge>
    <edge id=":10186775983_6" function="internal">
        <lane id=":10186775983_6_0" index="0" disallow="tram rail_urban rail rail_electric rail_fast ship" speed="8.94" length="9.42" shape="2575.83,1930.46 2577.44,1928.19 2578.72,1926.77 2580.11,1925.43 2582.05,1923.42"/>
    </edge>
    <edge id=":10212645221_0" function="internal">
        <lane id=":10212645221_0_0" index="0" disallow="tram rail_urban rail rail_electric rail_fast ship" speed="8.94" length="5.00" shape="2978.24,1128.57 2977.21,1133.46"/>
    </edge>
    <edge id=":10212645221_1" function="internal">
        <lane id=":10212645221_1_0" index="0" disallow="tram rail_urban rail rail_electric rail_fast ship" speed="8.94" length="5.00" shape="2974.08,1132.80 2975.11,1127.91"/>
    </edge>
    <edge id=":10212645222_0" function="internal">
        <lane id=":10212645222_0_0" index="0" allow="pedestrian delivery bicycle" speed="5.56" length="5.00" shape="2944.26,1120.97 2943.16,1125.85"/>
    </edge>
    <edge id=":10212645222_1" function="internal">
        <lane id=":10212645222_1_0" index="0" allow="pedestrian delivery bicycle" speed="3.65" length="1.44" shape="2944.26,1120.97 2943.22,1121.97"/>
    </edge>
    <edge id=":10212645222_4" function="internal">
        <lane id=":10212645222_4_0" index="0" allow="pedestrian delivery bicycle" speed="3.65" length="3.23" shape="2943.22,1121.97 2942.35,1122.18 2941.65,1121.62 2941.14,1120.27"/>
    </edge>
    <edge id=":10212645222_2" function="internal">
        <lane id=":10212645222_2_0" index="0" allow="pedestrian delivery bicycle" speed="5.56" length="5.00" shape="2940.04,1125.15 2941.14,1120.27"/>
    </edge>
    <edge id=":10212645222_3" function="internal">
        <lane id=":10212645222_3_0" index="0" allow="pedestrian delivery bicycle" speed="3.65" length="1.44" shape="2940.04,1125.15 2941.08,1124.15"/>
    </edge>
    <edge id=":10212645222_5" function="internal">
        <lane id=":10212645222_5_0" index="0" allow="pedestrian delivery bicycle" speed="3.65" length="3.23" shape="2941.08,1124.15 2941.95,1123.94 2942.64,1124.51 2943.16,1125.85"/>
    </edge>
    <edge id=":10212645223_0" function="internal">
        <lane id=":10212645223_0_0" index="0" disallow="tram rail_urban rail rail_electric rail_fast ship" speed="8.94" length="0.32" shape="2972.64,1154.49 2972.56,1154.80"/>
    </edge>
    <edge id=":10212645223_1" function="internal">
        <lane id=":10212645223_1_0" index="0" disallow="tram rail_urban rail rail_electric rail_fast ship" speed="8.94" length="0.32" shape="2969.46,1154.02 2969.54,1153.71"/>
    </edge>
    <edge id=":10212645225_0" function="internal">
        <lane id=":10212645225_0_0" index="0" disallow="tram rail_urban rail rail_electric rail_fast ship" speed="8.94" length="5.00" shape="2990.86,1076.47 2989.55,1081.29"/>
    </edge>
    <edge id=":10212645225_1" function="internal">
        <lane id=":10212645225_1_0" index="0" disallow="tram rail_urban rail rail_electric rail_fast ship" speed="8.94" length="5.00" shape="2986.46,1080.45 2987.78,1075.63"/>
    </edge>
    <edge id=":10212645226_0" function="internal">
        <lane id=":10212645226_0_0" index="0" allow="pedestrian delivery bicycle" speed="5.56" length="5.00" shape="2956.09,1068.45 2954.99,1073.33"/>
    </edge>
    <edge id=":10212645226_1" function="internal">
        <lane id=":10212645226_1_0" index="0" allow="pedestrian delivery bicycle" speed="3.65" length="1.44" shape="2956.09,1068.45 2955.05,1069.44"/>
    </edge>
    <edge id=":10212645226_4" function="internal">
        <lane id=":10212645226_4_0" index="0" allow="pedestrian delivery bicycle" speed="3.65" length="3.23" shape="2955.05,1069.44 2954.18,1069.66 2953.49,1069.09 2952.97,1067.75"/>
    </edge>
    <edge id=":10212645226_2" function="internal">
        <lane id=":10212645226_2_0" index="0" allow="pedestrian delivery bicycle" speed="5.56" length="5.00" shape="2951.87,1072.62 2952.97,1067.75"/>
    </edge>
    <edge id=":10212645226_3" function="internal">
        <lane id=":10212645226_3_0" index="0" allow="pedestrian delivery bicycle" speed="3.65" length="1.44" shape="2951.87,1072.62 2952.91,1071.63"/>
    </edge>
    <edge id=":10212645226_5" function="internal">
        <lane id=":10212645226_5_0" index="0" allow="pedestrian delivery bicycle" speed="3.65" length="3.23" shape="2952.91,1071.63 2953.78,1071.41 2954.48,1071.98 2954.99,1073.33"/>
    </edge>
    <edge id=":10228067560_0" function="internal">
        <lane id=":10228067560_0_0" index="0" allow="pedestrian delivery bicycle" speed="3.65" length="4.67" shape="2795.84,1866.73 2797.28,1866.85 2798.01,1867.36 2798.05,1868.26 2797.38,1869.53"/>
    </edge>
    <edge id=":10234218844_0" function="internal">
        <lane id=":10234218844_0_0" index="0" allow="pedestrian delivery bicycle" speed="3.65" length="4.67" shape="2855.62,1761.58 2856.78,1760.71 2857.66,1760.60 2858.28,1761.24 2858.64,1762.64"/>
    </edge>
    <edge id=":10234218845_0" function="internal">
        <lane id=":10234218845_0_0" index="0" allow="pedestrian delivery bicycle" speed="5.56" length="9.41" shape="2848.79,1799.02 2840.11,1795.39"/>
    </edge>
    <edge id=":10234218845_1" function="internal">
        <lane id=":10234218845_1_0" index="0" allow="pedestrian delivery bicycle" speed="5.56" length="10.18" shape="2848.79,1799.02 2846.48,1797.63 2845.14,1795.77 2844.76,1793.45 2845.35,1790.66"/>
    </edge>
    <edge id=":10234218845_2" function="internal">
        <lane id=":10234218845_2_0" index="0" allow="pedestrian delivery bicycle" speed="3.65" length="4.67" shape="2848.79,1799.02 2847.99,1797.82 2847.93,1796.93 2848.61,1796.34 2850.02,1796.07"/>
    </edge>
    <edge id=":10234218845_3" function="internal">
        <lane id=":10234218845_3_0" index="0" allow="pedestrian delivery bicycle" speed="5.23" length="5.23" shape="2848.37,1791.73 2848.05,1793.19 2848.22,1794.40 2848.88,1795.36 2850.02,1796.07"/>
    </edge>
    <edge id=":10234218845_4" function="internal">
        <lane id=":10234218845_4_0" index="0" allow="pedestrian delivery bicycle" speed="5.56" length="10.44" shape="2848.37,1791.73 2847.03,1794.28 2845.21,1795.74 2842.90,1796.12 2840.11,1795.39"/>
    </edge>
    <edge id=":10234218845_5" function="internal">
        <lane id=":10234218845_5_0" index="0" allow="pedestrian delivery bicycle" speed="3.65" length="4.67" shape="2848.37,1791.73 2847.21,1792.59 2846.32,1792.70 2845.70,1792.06 2845.35,1790.66"/>
    </edge>
    <edge id=":10234218845_6" function="internal">
        <lane id=":10234218845_6_0" index="0" allow="pedestrian delivery bicycle" speed="4.98" length="5.07" shape="2841.34,1792.44 2842.69,1792.79 2843.81,1792.61 2844.70,1791.90 2845.35,1790.66"/>
    </edge>
    <edge id=":10234218845_7" function="internal">
        <lane id=":10234218845_7_0" index="0" allow="pedestrian delivery bicycle" speed="5.56" length="9.41" shape="2841.34,1792.44 2850.02,1796.07"/>
    </edge>
    <edge id=":10234218845_8" function="internal">
        <lane id=":10234218845_8_0" index="0" allow="pedestrian delivery bicycle" speed="3.65" length="4.67" shape="2841.34,1792.44 2842.14,1793.64 2842.20,1794.53 2841.52,1795.12 2840.11,1795.39"/>
    </edge>
    <edge id=":10234392400_0" function="internal">
        <lane id=":10234392400_0_0" index="0" allow="pedestrian delivery bicycle" speed="3.65" length="4.67" shape="2782.47,855.72 2783.31,856.89 2783.39,857.78 2782.73,858.39 2781.33,858.70"/>
    </edge>
    <edge id=":10234392401_0" function="internal">
        <lane id=":10234392401_0_0" index="0" allow="pedestrian delivery bicycle" speed="3.90" length="2.58" shape="2768.27,853.68 2767.58,853.52 2767.00,853.62 2766.55,853.98 2766.20,854.60"/>
    </edge>
    <edge id=":10234392401_1" function="internal">
        <lane id=":10234392401_1_0" index="0" allow="pedestrian delivery bicycle" speed="5.56" length="7.73" shape="2763.22,853.44 2764.25,851.59 2765.63,850.52 2767.35,850.22 2769.42,850.69"/>
    </edge>
    <edge id=":10234392402_0" function="internal">
        <lane id=":10234392402_0_0" index="0" allow="pedestrian delivery bicycle" speed="3.65" length="4.67" shape="2775.86,872.83 2776.70,874.00 2776.78,874.89 2776.12,875.50 2774.72,875.81"/>
    </edge>
    <edge id=":10234392403_0" function="internal">
        <lane id=":10234392403_0_0" index="0" allow="pedestrian delivery bicycle" speed="5.04" length="5.01" shape="2763.06,871.33 2761.72,871.03 2760.61,871.22 2759.71,871.91 2759.04,873.11"/>
    </edge>
    <edge id=":10234392403_1" function="internal">
        <lane id=":10234392403_1_0" index="0" allow="pedestrian delivery bicycle" speed="5.56" length="10.17" shape="2763.06,871.33 2760.62,869.97 2759.21,868.16 2758.82,865.90 2759.45,863.18"/>
    </edge>
    <edge id=":10234392403_2" function="internal">
        <lane id=":10234392403_2_0" index="0" allow="pedestrian delivery bicycle" speed="3.65" length="4.67" shape="2763.06,871.33 2762.23,870.16 2762.14,869.26 2762.80,868.66 2764.21,868.35"/>
    </edge>
    <edge id=":10234392403_3" function="internal">
        <lane id=":10234392403_3_0" index="0" allow="pedestrian delivery bicycle" speed="5.04" length="5.00" shape="2762.43,864.34 2762.12,865.67 2762.31,866.79 2763.01,867.68 2764.21,868.35"/>
    </edge>
    <edge id=":10234392403_4" function="internal">
        <lane id=":10234392403_4_0" index="0" allow="pedestrian delivery bicycle" speed="5.56" length="9.40" shape="2762.43,864.34 2759.04,873.11"/>
    </edge>
    <edge id=":10234392403_5" function="internal">
        <lane id=":10234392403_5_0" index="0" allow="pedestrian delivery bicycle" speed="3.65" length="4.67" shape="2762.43,864.34 2761.25,865.17 2760.36,865.25 2759.76,864.59 2759.45,863.18"/>
    </edge>
    <edge id=":10234392403_6" function="internal">
        <lane id=":10234392403_6_0" index="0" allow="pedestrian delivery bicycle" speed="5.56" length="9.41" shape="2756.06,871.96 2759.45,863.18"/>
    </edge>
    <edge id=":10234392403_7" function="internal">
        <lane id=":10234392403_7_0" index="0" allow="pedestrian delivery bicycle" speed="5.56" length="10.16" shape="2756.06,871.96 2757.42,869.53 2759.23,868.12 2761.49,867.72 2764.21,868.35"/>
    </edge>
    <edge id=":10234392403_8" function="internal">
        <lane id=":10234392403_8_0" index="0" allow="pedestrian delivery bicycle" speed="3.65" length="4.67" shape="2756.06,871.96 2757.24,871.13 2758.13,871.04 2758.73,871.70 2759.04,873.11"/>
    </edge>
    <edge id=":10295325401_0" function="internal">
        <lane id=":10295325401_0_0" index="0" allow="bicycle" speed="8.33" length="5.14" width="1.00" shape="1546.75,1846.13 1542.16,1843.83"/>
    </edge>
    <edge id=":10295325401_1" function="internal">
        <lane id=":10295325401_1_0" index="0" allow="bicycle" speed="2.04" length="1.46" width="1.00" shape="1546.75,1846.13 1546.53,1845.74 1546.53,1845.46 1546.75,1845.29 1547.20,1845.23"/>
    </edge>
    <edge id=":10295325401_2" function="internal">
        <lane id=":10295325401_2_0" index="0" allow="bicycle" speed="8.33" length="5.14" width="1.00" shape="1542.61,1842.93 1547.20,1845.23"/>
    </edge>
    <edge id=":10295325401_3" function="internal">
        <lane id=":10295325401_3_0" index="0" allow="bicycle" speed="2.04" length="1.46" width="1.00" shape="1542.61,1842.93 1542.83,1843.32 1542.83,1843.60 1542.60,1843.77 1542.16,1843.83"/>
    </edge>
    <edge id=":10295602818_0" function="internal">
        <lane id=":10295602818_0_0" index="0" allow="pedestrian delivery bicycle" speed="5.01" length="0.12" shape="1386.37,1837.35 1386.34,1837.46"/>
    </edge>
    <edge id=":10295602818_1" function="internal">
        <lane id=":10295602818_1_0" index="0" allow="pedestrian delivery bicycle" speed="5.01" length="0.35" shape="1383.23,1836.73 1383.32,1836.39"/>
    </edge>
    <edge id=":10295602820_0" function="internal">
        <lane id=":10295602820_0_0" index="0" allow="pedestrian delivery bicycle" speed="3.65" length="4.67" shape="1487.03,1969.41 1487.92,1970.55 1488.05,1971.43 1487.42,1972.07 1486.03,1972.45"/>
    </edge>
    <edge id=":10295602824_0" function="internal">
        <lane id=":10295602824_0_0" index="0" allow="pedestrian delivery bicycle" speed="4.47" length="5.00" shape="1405.62,1924.40 1400.91,1922.72"/>
    </edge>
    <edge id=":10295602826_0" function="internal">
        <lane id=":10295602826_0_0" index="0" allow="pedestrian delivery bicycle" speed="4.47" length="5.00" shape="1425.48,1868.29 1420.76,1866.63"/>
    </edge>
    <edge id=":10295602826_1" function="internal">
        <lane id=":10295602826_1_0" index="0" allow="pedestrian delivery bicycle" speed="3.65" length="4.67" shape="1425.48,1868.29 1424.61,1867.14 1424.50,1866.25 1425.14,1865.63 1426.54,1865.27"/>
    </edge>
    <edge id=":10295602826_2" function="internal">
        <lane id=":10295602826_2_0" index="0" allow="pedestrian delivery bicycle" speed="4.47" length="5.00" shape="1421.83,1863.61 1426.54,1865.27"/>
    </edge>
    <edge id=":10295602826_3" function="internal">
        <lane id=":10295602826_3_0" index="0" allow="pedestrian delivery bicycle" speed="3.65" length="4.67" shape="1421.83,1863.61 1422.69,1864.77 1422.81,1865.65 1422.16,1866.27 1420.76,1866.63"/>
    </edge>
    <edge id=":10295606703_0" function="internal">
        <lane id=":10295606703_0_0" index="0" allow="pedestrian delivery bicycle" speed="3.65" length="4.67" shape="1348.52,2044.71 1349.69,2045.57 1350.05,2046.38 1349.61,2047.16 1348.38,2047.91"/>
    </edge>
    <edge id=":10295606707_0" function="internal">
        <lane id=":10295606707_0_0" index="0" allow="pedestrian delivery bicycle" speed="3.65" length="4.67" shape="1361.36,1965.74 1362.56,1966.54 1362.96,1967.34 1362.56,1968.14 1361.36,1968.94"/>
    </edge>
    <edge id=":10295606708_0" function="internal">
        <lane id=":10295606708_0_0" index="0" allow="pedestrian delivery bicycle" speed="5.56" length="0.30" shape="1330.15,1980.56 1330.01,1980.83"/>
    </edge>
    <edge id=":10295606708_1" function="internal">
        <lane id=":10295606708_1_0" index="0" allow="pedestrian delivery bicycle" speed="5.56" length="0.30" shape="1327.17,1979.34 1327.31,1979.07"/>
    </edge>
    <edge id=":1158154443_0" function="internal">